/*--------------------------------*- C++ -*----------------------------------*\
| =========                 |                                                 |
| \\      /  F ield         | OpenFOAM: The Open Source CFD Toolbox           |
|  \\    /   O peration     | Version:  4.x                                   |
|   \\  /    A nd           | Web:      www.OpenFOAM.org                      |
|    \\/     M anipulation  |                                                 |
\*---------------------------------------------------------------------------*/
FoamFile
{
    version     2.0;
    format      ascii;
    class       volScalarField;
    object      k;
}
// * * * * * * * * * * * * * * * * * * * * * * * * * * * * * * * * * * * * * //

dimensions      [0 2 -2 0 0 0 0];

internalField   uniform 0.1666;

boundaryField
{
    inlet
    {
        type            fixedValue;
        value           uniform 0.1666;
    }
    outlet
    {
        type            inletOutlet;
        inletValue      uniform 0.1666;
        value           uniform 0.1666;
    }
    ground
    {
        //type            kqRWallFunction;
        //value           uniform 0.1666;
        type            slip;
    }
    "side.*"
    {
        type            symmetry;
    }
    top
    {
        type            symmetry;
    }
    ahmed
    {
        type            kqRWallFunction;
        value           uniform 0.1666;
    }
}

// ************************************************************************* //
