/*--------------------------------*- C++ -*----------------------------------*\
  =========                 |
  \\      /  F ield         | OpenFOAM: The Open Source CFD Toolbox
   \\    /   O peration     | Website:  https://openfoam.org
    \\  /    A nd           | Version:  7
     \\/     M anipulation  |
\*---------------------------------------------------------------------------*/
FoamFile
{
    version     2.0;
    format      ascii;
    class       dictionary;
    object      snappyHexMeshDict;
}
// * * * * * * * * * * * * * * * * * * * * * * * * * * * * * * * * * * * * * //

// Which of the steps to run
castellatedMesh false;
snap            false;
addLayers       true;


// Geometry. Definition of all surfaces. All surfaces are of class
// searchableSurface.
// Surfaces are used
// - to specify refinement for any mesh cell intersecting it
// - to specify refinement for any mesh cell inside/outside/near
// - to 'snap' the mesh boundary to the surface

// Parametros
// Refinamiento sobre el GTS
xg1i	-4.36243095; // Se elige asi para cortar en un borde de elemento
xg1f	 4.40056905;
xg2i	-3.67663095;
xg2f	 4.40056905;
xg3i	-3.06703095;
xg3f	 2.26696905;
yg1i	-1.0668;
yg1f	 1.0668;
yg2i	-0.6858;
yg2f	 0.6858;
yg3i	-0.4572;
yg3f	 0.4582;
zg1i	-0.0762;
zg1f	 1.524;
zg2i	-0.0762;	 
zg2f	 0.9906;
zg3i	-0.0762;
zg3f	 0.6858;
// Refinamiento sobre el suelo
//xfi	-7.33423095;
//xff	 4.40056905;
//yfi	-1.553265515;
//yff	 1.553265515;
//zfi	-0.0762;
//zf1f	 0.28000; // OK, para lograr al menos 4 capas de cada nivel sobre el suelo, desde nivel 1 hasta nivel 4
//zf2f	 0.12000;
//zf3f	 0.04000;
// Refinamiento sobre techo
//xti	-7.33423095;
//xtf	 4.40056905;
//yti	-1.553265515;
//ytf	 1.553265515;
//zt1i	 1.70;	
//zt2i	 1.86;
//zt3i	 1.94;
//ztf	 2.0574;
// Refinamiento sobre pared lateral izquierda
//xli	-7.33423095;
//xlf	 4.40056905;
//yli	-1.553265515;
//yl1f	-1.19;
//yl2f	-1.35;
//yl3f	-1.43;
//zli	-0.0762;
//zlf	 2.0574;
// Refinamiento sobre pared lateral derecha
//xri	-7.33423095;
//xrf	 4.40056905;
//yr1i	 1.19;
//yr2i	 1.35;
//yr3i	 1.43;
//yrf	 1.553265515;
//zri	-0.0762;
//zrf	 2.0574;

geometry
{
    gtsModel
    {
        type triSurfaceMesh;
        file "GTS-Storms.stl";
    }
    inlet
    {
        type triSurfaceMesh;
        file "inlet.stl";
    }
    outlet
    {
        type triSurfaceMesh;
        file "outlet.stl";
    }
    left
    {
        type triSurfaceMesh;
        file "left.stl";
    }
    right
    {
        type triSurfaceMesh;
        file "right.stl";
    }
    top
    {
        type triSurfaceMesh;
        file "top.stl";
    }
    floor
    {
        type triSurfaceMesh;
        file "floor.stl";
    }
/*
    refinementBoxFloor1 // Zonas de refinamiento sobre el suelo
    {
        type searchableBox;
        min ($xfi $yfi $zfi); 
        max ($xff $yff $zf1f);   
    }
    refinementBoxFloor2
    {
        type searchableBox;
        min ($xfi $yfi $zfi); 
        max ($xff $yff $zf2f);   
    }
    refinementBoxFloor3
    {
        type searchableBox;
        min ($xfi $yfi $zfi); 
        max ($xff $yff $zf3f);   
    }
    refinementBoxTop1 // Zonas de refinamiento sobre el techo
    {
        type searchableBox;
        min ($xti $yti $zt1i); 
        max ($xtf $ytf $ztf);   
    }
    refinementBoxTop2
    {
        type searchableBox;
        min ($xti $yti $zt2i); 
        max ($xtf $ytf $ztf);  
    }
    refinementBoxTop3
    {
        type searchableBox;
        min ($xti $yti $zt3i); 
        max ($xtf $ytf $ztf);  
    }
    refinementBoxLeft1 // Zonas de refinamiento sobre la pared lateral izquierda
    {
        type searchableBox;
        min ($xli $yli $zli); 
        max ($xlf $yl1f $zlf);   
    }
    refinementBoxLeft2
    {
        type searchableBox;
        min ($xli $yli $zli); 
        max ($xlf $yl2f $zlf);  
    }
    refinementBoxLeft3
    {
        type searchableBox;
        min ($xli $yli $zli); 
        max ($xlf $yl3f $zlf);  
    }
    refinementBoxRight1 // Zonas de refinamiento sobre la pared lateral derecha
    {
        type searchableBox;
        min ($xri $yr1i $zri); 
        max ($xrf $yrf $zrf);   
    }
    refinementBoxRight2
    {
        type searchableBox;
        min ($xri $yr2i $zri); 
        max ($xrf $yrf $zrf);  
    }
    refinementBoxRight3
    {
        type searchableBox;
        min ($xri $yr3i $zri); 
        max ($xrf $yrf $zrf);  
    }
*/
    refinementBox1 // Zonas de refinamiento sobre el GTS
    {
        type searchableBox;
        min ($xg1i $yg1i $zg1i); 
        max ($xg1f $yg1f $zg1f);   
    }
    refinementBox2
    {
        type searchableBox;
        min ($xg2i $yg2i $zg2i); 
        max ($xg2f $yg2f $zg2f); 
    }
    refinementBox3
    {
        type searchableBox;
        min ($xg3i $yg3i $zg3i); 
        max ($xg3f $yg3f $zg3f); 
    }
};


// Settings for the castellatedMesh generation.
castellatedMeshControls
{

    // Refinement parameters
    // ~~~~~~~~~~~~~~~~~~~~~

    // If local number of cells is >= maxLocalCells on any processor
    // switches from from refinement followed by balancing
    // (current method) to (weighted) balancing before refinement.
    maxLocalCells 200000;

    // Overall cell limit (approximately). Refinement will stop immediately
    // upon reaching this number so a refinement level might not complete.
    // Note that this is the number of cells before removing the part which
    // is not 'visible' from the keepPoint. The final number of cells might
    // actually be a lot less.
    maxGlobalCells 55000000;

    // The surface refinement loop might spend lots of iterations refining just a
    // few cells. This setting will cause refinement to stop if <= minimumRefine cells
    // are selected for refinement. Note: it will at least do one iteration
    // (unless the number of cells to refine is 0)
    minRefinementCells 10;

    // Allow a certain level of imbalance during refining
    // (since balancing is quite expensive)
    // Expressed as fraction of perfect balance (= overall number of cells /
    // nProcs). 0=balance always.
    maxLoadUnbalance 0.10;


    // Number of buffer layers between different levels.
    // 1 means normal 2:1 refinement restriction, larger means slower
    // refinement. // Creo que se refiere a que no habrá más de 2:1 si al menos hay una celda entre medio, NO que se mejorará el refinamiento al saltar
    // de una capa a otra
    nCellsBetweenLevels 4; // 3 original



    // Explicit feature edge refinement
    // ~~~~~~~~~~~~~~~~~~~~~~~~~~~~~~~~

    // Specifies a level for any cell intersected by its edges.
    // This is a featureEdgeMesh, read from constant/triSurface for now.
 //!!
    features
    (
        {
            file "GTS-Storms.eMesh"; //!!
            level 6;
        }
    );



    // Surface based refinement
    // ~~~~~~~~~~~~~~~~~~~~~~~~

    // Specifies two levels for every surface. The first is the minimum level,
    // every cell intersecting a surface gets refined up to the minimum level.
    // The second level is the maximum level. Cells that 'see' multiple
    // intersections where the intersections make an
    // angle > resolveFeatureAngle get refined up to the maximum level.

    refinementSurfaces
    {
        gtsModel
        {
            // Surface-wise min and max refinement level
            level (5 6);

            // Optional specification of patch type (default is wall). No
            // constraint types (cyclic, symmetry) etc. are allowed.
            patchInfo
            {
                type wall;
                inGroups (gts_surface);
            }
        }
	floor
        {
            // Surface-wise min and max refinement level
            level (0 0);

            // Optional specification of patch type (default is wall). No
            // constraint types (cyclic, symmetry) etc. are allowed.
            patchInfo
            {
                type wall;
                inGroups (floor);
            }
        }
	top
        {
            level (0 0);

            // Optional specification of patch type (default is wall). No
            // constraint types (cyclic, symmetry) etc. are allowed.
            patchInfo
            {
                type patch;
                inGroups (top);
            }
        }
	left
        {
            level (0 0);

            // Optional specification of patch type (default is wall). No
            // constraint types (cyclic, symmetry) etc. are allowed.
            patchInfo
            {
                type patch;
                inGroups (left);
            }
        }
	right
        {
            level (0 0);

            // Optional specification of patch type (default is wall). No
            // constraint types (cyclic, symmetry) etc. are allowed.
            patchInfo
            {
                type patch;
                inGroups (right);
            }
        }
	inlet
        {
            level (0 0);

            patchInfo
            {
                type patch;
                inGroups (inlet); //!!
            }
        }
	outlet
        {
            level (0 0);

            patchInfo
            {
                type patch;
                inGroups (outlet); //!!
            }
        }

    }

    // Resolve sharp angles
    resolveFeatureAngle 10;


    // Region-wise refinement
    // ~~~~~~~~~~~~~~~~~~~~~~

    // Specifies refinement level for cells in relation to a surface. One of
    // three modes
    // - distance. 'levels' specifies per distance to the surface the
    //   wanted refinement level. The distances need to be specified in
    //   descending order.
    // - inside. 'levels' is only one entry and only the level is used. All
    //   cells inside the surface get refined up to the level. The surface
    //   needs to be closed for this to be possible.
    // - outside. Same but cells outside.

    refinementRegions
    {
        refinementBox1
        {
            mode inside;
            levels ((1E15 1));
        }
        refinementBox2
        {
            mode inside;
            levels ((1E15 2));
        }
        refinementBox3
        {
            mode inside;
            levels ((1E15 3));
        }
	gtsModel
	{
	   mode        distance;
	   levels
	   (
		(0.015 5)
	   );
	}
	/*
	floor
	{
	   mode        distance;
	   levels
	   (
		(0.05 4)
	   );
	}
        refinementBoxFloor3
        {
            mode inside;
            levels ((1E15 3));
        }
        refinementBoxFloor2
        {
            mode inside;
            levels ((1E15 2));
        }
        refinementBoxFloor1
        {
            mode inside;
            levels ((1E15 1));
        }
	top
	{
	   mode        distance;
	   levels
	   (
		(0.05 4)
	   );
	}
        refinementBoxTop3
        {
            mode inside;
            levels ((1E15 3));
        }
        refinementBoxTop2
        {
            mode inside;
            levels ((1E15 2));
        }
        refinementBoxTop1
        {
            mode inside;
            levels ((1E15 1));
        }
	left
	{
	   mode        distance;
	   levels
	   (
		(0.05 4)
	   );
	}
        refinementBoxLeft3
        {
            mode inside;
            levels ((1E15 3));
        }
        refinementBoxLeft2
        {
            mode inside;
            levels ((1E15 2));
        }
        refinementBoxLeft1
        {
            mode inside;
            levels ((1E15 1));
        }
	right
	{
	   mode        distance;
	   levels
	   (
		(0.05 4)
	   );
	}
        refinementBoxRight3
        {
            mode inside;
            levels ((1E15 3));
        }
        refinementBoxRight2
        {
            mode inside;
            levels ((1E15 2));
        }
        refinementBoxRight1
        {
            mode inside;
            levels ((1E15 1));
        }
	*/
    }


    // Mesh selection
    // ~~~~~~~~~~~~~~

    // After refinement patches get added for all refinementSurfaces and
    // all cells intersecting the surfaces get put into these patches. The
    // section reachable from the locationInMesh is kept.
    // NOTE: This point should never be on a face, always inside a cell, even
    // after refinement.
    //locationInMesh (3.0001 3.0001 0.43);
      locationInMesh (2.0001 0.0001 0.5002); //!! Creo que punto sobre la región que se desea mallar


    // Whether any faceZones (as specified in the refinementSurfaces)
    // are only on the boundary of corresponding cellZones or also allow
    // free-standing zone faces. Not used if there are no faceZones.
    allowFreeStandingZoneFaces true;
}



// Settings for the snapping.
snapControls
{
    //- Number of patch smoothing iterations before finding correspondence
    //  to surface
    nSmoothPatch 3;

    //- Relative distance for points to be attracted by surface feature point
    //  or edge. True distance is this factor times local
    //  maximum edge length.
    tolerance 2.0;

    //- Number of mesh displacement relaxation iterations.
    nSolveIter 300;

    //- Maximum number of snapping relaxation iterations. Should stop
    //  before upon reaching a correct mesh.
    nRelaxIter 5;

    // Feature snapping

        //- Number of feature edge snapping iterations.
        //  Leave out altogether to disable.
        nFeatureSnapIter 10;

        //- Detect (geometric only) features by sampling the surface
        //  (default=false).
        implicitFeatureSnap false;

        //- Use castellatedMeshControls::features (default = true)
        explicitFeatureSnap true;

        //- Detect points on multiple surfaces (only for explicitFeatureSnap)
        multiRegionFeatureSnap true;
}
// true false false o
// false true true


// Settings for the layer addition.
addLayersControls
{
    // Are the thickness parameters below relative to the undistorted
    // size of the refined cell outside layer (true) or absolute sizes (false).
    relativeSizes true;

    // Expansion factor for layer mesh
    expansionRatio 1.15;

    // Wanted thickness of final added cell layer. If multiple layers
    // is the thickness of the layer furthest away from the wall.
    // Relative to undistorted size of cell outside layer.
    // See relativeSizes parameter.
    finalLayerThickness 0.87; // original 0.3

    // Minimum thickness of cell layer. If for any reason layer
    // cannot be above minThickness do not add layer.
    // Relative to undistorted size of cell outside layer.
    minThickness 0.01; // original 0.1

    // If points get not extruded do nGrow layers of connected faces that are
    // also not grown. This helps convergence of the layer addition process
    // close to features.
    // Note: changed(corrected) w.r.t 17x! (didn't do anything in 17x)
    nGrow 0;

    // Per final patch (so not geometry!) the layer information
    layers
    {
        //"(lowerWall|motorBike).*"
	gtsModel //!! // Coloqué el nombre definido en el bloque de geometría
        {
            nSurfaceLayers 14;
	    expansionRatio 1.15;
	    finalLayerThickness 0.87;
        }
	/*
	floor // A fin de lograr yplus <~ 300
	{
            nSurfaceLayers 22;
	    expansionRatio 1.15;
	    finalLayerThickness 0.87;
	}
	top // A fin de lograr yplus <~ 300
	{
            nSurfaceLayers 22;
	    expansionRatio 1.15;
	    finalLayerThickness 0.87;
	}
	left
	{
            nSurfaceLayers 22;
	    expansionRatio 1.15;
	    finalLayerThickness 0.87;
	}
	right
	{
            nSurfaceLayers 22;
	    expansionRatio 1.15;
	    finalLayerThickness 0.87;
	}
	*/
    }

    // Advanced settings

    // When not to extrude surface. 0 is flat surface, 90 is when two faces
    // are perpendicular
    featureAngle 60;

    // At non-patched sides allow mesh to slip if extrusion direction makes
    // angle larger than slipFeatureAngle.
    slipFeatureAngle 30;

    // Maximum number of snapping relaxation iterations. Should stop
    // before upon reaching a correct mesh.
    nRelaxIter 5;

    // max number of iterations after which the controls in the relaxe
    // sub dictionary of meshQuality are used (typically 20).
    //nRelaxedIter 20; // no estaba; se agrego manualmente

    // Number of smoothing iterations of surface normals
    nSmoothSurfaceNormals 1;

    // Number of smoothing iterations of interior mesh movement direction
    nSmoothNormals 3;

    // Smooth layer thickness over surface patches
    nSmoothThickness 10;

    // Stop layer growth on highly warped cells // Incrementar para favorecer adicion de capas
    maxFaceThicknessRatio 0.5;

    // Reduce layer growth where ratio thickness to medial
    // distance is large // Incrementar para favorecer adicion de capas
    maxThicknessToMedialRatio 0.3;

    // Angle used to pick up medial axis points
    // Note: changed(corrected) w.r.t 17x! 90 degrees corresponds to 130 in 17x.
    minMedianAxisAngle 90;

    // Create buffer region for new layer terminations
    nBufferCellsNoExtrude 0;

    // Overall max number of layer addition iterations. The mesher will exit
    // if it reaches this number of iterations; possibly with an illegal
    // mesh.
    nLayerIter 100;
}



// Generic mesh quality settings. At any undoable phase these determine
// where to undo.
meshQualityControls
{
    #include "meshQualityLayersDict"
}


// Advanced

// Write flags
writeFlags
(
    scalarLevels
    layerSets
    layerFields     // write volScalarField for layer coverage
);


// Merge tolerance. Is fraction of overall bounding box of initial mesh.
// Note: the write tolerance needs to be higher than this.
mergeTolerance 1e-6;


// ************************************************************************* //
