/*--------------------------------*- C++ -*----------------------------------*\
  =========                 |
  \\      /  F ield         | OpenFOAM: The Open Source CFD Toolbox
   \\    /   O peration     | Website:  https://openfoam.org
    \\  /    A nd           | Version:  7
     \\/     M anipulation  |
\*---------------------------------------------------------------------------*/
FoamFile
{
    version     2.0;
    format      ascii;
    class       dictionary;
    object      blockMeshDict;
}

// * * * * * * * * * * * * * * * * * * * * * * * * * * * * * * * * * * * * * //

convertToMeters 1;

vertices
(
    (-37.80001 -18.00001 -0.50401)
    (117.00001 -18.00001 -0.50401)
    (117.00001  18.00001 -0.50401)
    (-37.80001  18.00001 -0.50401)
    (-37.80001 -18.00001 32.40001)
    (117.00001 -18.00001 32.40001)
    (117.00001  18.00001 32.40001)
    (-37.80001  18.00001 32.40001)

/* // El dominio se extiende 1 m sobre cada borde, para contener a todo el volumen deseado
    (-38.8 -19 -1.504)
    (118 -19 -1.504)
    (118 19 -1.504)
    (-38.8 19 -1.504)
    (-38.8 -19 33.4)
    (118 -19 33.4)
    (118 19 33.4)
    (-38.8 19 33.4)
*/
);
// Dimensiones totales: 154.8 36 32.904 (sin agrandar dominio contenedor)
// Dimensiones totales: 156.6 38 34.904 (agrandando dominio contenedor en una unidad en cada borde)
blocks
(
    hex (0 1 2 3 4 5 6 7) (78 18 17) simpleGrading (1 1 1) // Para h aprox. 2 m
    //hex (0 1 2 3 4 5 6 7) (155 36 33) simpleGrading (1 1 1) // Para h aprox. 1 m
    //hex (0 1 2 3 4 5 6 7) (258 60 55) simpleGrading (1 1 1) // Para h aprox. 0.6 m
);

edges
(
);

boundary
(
    frontAndBack
    {
        type patch;
        faces
        (
            (3 7 6 2)
            (1 5 4 0)
        );
    }
    inletBB
    {
        type patch;
        faces
        (
            (0 4 7 3)
        );
    }
    outletBB
    {
        type patch;
        faces
        (
            (2 6 5 1)
        );
    }
    lowerWallBB
    {
        type wall;
        faces
        (
            (0 3 2 1)
        );
    }
    upperWallBB
    {
        type patch;
        faces
        (
            (4 5 6 7)
        );
    }
);

// ************************************************************************* //
