/*--------------------------------*- C++ -*----------------------------------*\
  =========                 |
  \\      /  F ield         | OpenFOAM: The Open Source CFD Toolbox
   \\    /   O peration     | Website:  https://openfoam.org
    \\  /    A nd           | Version:  7
     \\/     M anipulation  |
\*---------------------------------------------------------------------------*/
FoamFile
{
    version     2.0;
    format      ascii;
    class       dictionary;
    object      blockMeshDict;
}

// * * * * * * * * * * * * * * * * * * * * * * * * * * * * * * * * * * * * * //

convertToMeters 1;

vertices
(
    (-1  -1  0)
    ( 1  -1  0)
    ( 1   1  0)
    (-1   1  0)
    (-1  -1  1)
    ( 1  -1  1)
    ( 1   1  1)
    (-1   1  1)

/* // El dominio se extiende 1 m sobre cada borde, para contener a todo el volumen deseado
    (-38.8 -19 -1.504)
    (118 -19 -1.504)
    (118 19 -1.504)
    (-38.8 19 -1.504)
    (-38.8 -19 33.4)
    (118 -19 33.4)
    (118 19 33.4)
    (-38.8 19 33.4)
*/
);
// Dimensiones totales: 19.3844 4.508 4.120312 (sin agrandar dominio contenedor)

blocks
(
    // hex (0 1 2 3 4 5 6 7) (155 36 33) simpleGrading (1 1 1) // Para h aprox. 1 m
    hex (0 1 2 3 4 5 5 4) (10 10 5) simpleGrading (1 1 1) // Para h aprox. 0.07513 m
);

edges
(
);

boundary
(
    frontAndBack
    {
        type patch;
        faces
        (
            (3 4 5 2)//(3 7 6 2)
            (1 5 4 0)
        );
    }
    inlet
    {
        type patch;
        faces
        (
            (0 4 4 3)
        );
    }
    outlet
    {
        type patch;
        faces
        (
            (2 5 5 1)
        );
    }
    lowerWall
    {
        type wall;
        faces
        (
            (0 3 2 1)
        );
    }
    upperWall
    {
        type empty;
        faces
        (
            (4 5 5 4)
        );
    }
);

// ************************************************************************* //
