/*--------------------------------*- C++ -*----------------------------------*\
| =========                 |                                                 |
| \\      /  F ield         | OpenFOAM: The Open Source CFD Toolbox           |
|  \\    /   O peration     | Version:  v2012                                 |
|   \\  /    A nd           | Website:  www.openfoam.com                      |
|    \\/     M anipulation  |                                                 |
\*---------------------------------------------------------------------------*/
FoamFile
{
    version     2.0;
    format      ascii;
    class       dictionary;
    object      surfaceFeatureExtractDict;
}
// * * * * * * * * * * * * * * * * * * * * * * * * * * * * * * * * * * * * * //

GTS-Storms-v7
{
	surfaces (
		"GTS-Storms-v7.stl"
	);
    // How to obtain raw features (extractFromFile || extractFromSurface)
    extractionMethod    extractFromSurface;

    // Mark edges whose adjacent surface normals are at an angle less
    // than includedAngle as features
    // - 0  : selects no edges
    // - 180: selects all edges
    includedAngle       171;

    subsetFeatures
    {
        nonManifoldEdges       yes;
        openEdges       yes;
    }


    // Write options

    // Write features to obj format for postprocessing
    writeObj            yes;
}

inlet
{
	surfaces (
		"inlet.stl"
	);
    // How to obtain raw features (extractFromFile || extractFromSurface)
    extractionMethod    extractFromSurface;

    // Mark edges whose adjacent surface normals are at an angle less
    // than includedAngle as features
    // - 0  : selects no edges
    // - 180: selects all edges
    includedAngle       171;

    subsetFeatures
    {
        nonManifoldEdges       yes;
        openEdges       yes;
    }


    // Write options

    // Write features to obj format for postprocessing
    writeObj            yes;
}

outlet
{
	surfaces (
		"outlet.stl"
	);
    // How to obtain raw features (extractFromFile || extractFromSurface)
    extractionMethod    extractFromSurface;

    // Mark edges whose adjacent surface normals are at an angle less
    // than includedAngle as features
    // - 0  : selects no edges
    // - 180: selects all edges
    includedAngle       171;

    subsetFeatures
    {
        nonManifoldEdges       yes;
        openEdges       yes;
    }


    // Write options

    // Write features to obj format for postprocessing
    writeObj            yes;
}

left
{
	surfaces (
		"left.stl"
	);
    // How to obtain raw features (extractFromFile || extractFromSurface)
    extractionMethod    extractFromSurface;

    // Mark edges whose adjacent surface normals are at an angle less
    // than includedAngle as features
    // - 0  : selects no edges
    // - 180: selects all edges
    includedAngle       171;

    subsetFeatures
    {
        nonManifoldEdges       yes;
        openEdges       yes;
    }


    // Write options

    // Write features to obj format for postprocessing
    writeObj            yes;
}

right
{
	surfaces (
		"right.stl"
	);
    // How to obtain raw features (extractFromFile || extractFromSurface)
    extractionMethod    extractFromSurface;

    // Mark edges whose adjacent surface normals are at an angle less
    // than includedAngle as features
    // - 0  : selects no edges
    // - 180: selects all edges
    includedAngle       171;

    subsetFeatures
    {
        nonManifoldEdges       yes;
        openEdges       yes;
    }


    // Write options

    // Write features to obj format for postprocessing
    writeObj            yes;
}

floor
{
	surfaces (
		"floor.stl"
	);
    // How to obtain raw features (extractFromFile || extractFromSurface)
    extractionMethod    extractFromSurface;

    // Mark edges whose adjacent surface normals are at an angle less
    // than includedAngle as features
    // - 0  : selects no edges
    // - 180: selects all edges
    includedAngle       171;

    subsetFeatures
    {
        nonManifoldEdges       yes;
        openEdges       yes;
    }


    // Write options

    // Write features to obj format for postprocessing
    writeObj            yes;
}

top
{
	surfaces (
		"top.stl"
	);
    // How to obtain raw features (extractFromFile || extractFromSurface)
    extractionMethod    extractFromSurface;

    // Mark edges whose adjacent surface normals are at an angle less
    // than includedAngle as features
    // - 0  : selects no edges
    // - 180: selects all edges
    includedAngle       171;

    subsetFeatures
    {
        nonManifoldEdges       yes;
        openEdges       yes;
    }


    // Write options

    // Write features to obj format for postprocessing
    writeObj            yes;
}


// ************************************************************************* //
