/*--------------------------------*- C++ -*----------------------------------*\
| =========                 |                                                 |
| \\      /  F ield         | OpenFOAM: The Open Source CFD Toolbox           |
|  \\    /   O peration     | Version:  4.x                                   |
|   \\  /    A nd           | Web:      www.OpenFOAM.org                      |
|    \\/     M anipulation  |                                                 |
\*---------------------------------------------------------------------------*/
FoamFile
{
    version     2.0;
    format      ascii;
    class       featureEdgeMesh;
    object      ab1.eMesh;
}
// * * * * * * * * * * * * * * * * * * * * * * * * * * * * * * * * * * * * * //

// points:
10((-0.42199999 -0.1945 0.338) (-0.42199999 0.1945 0.338) (0.52200001 -0.1945 0.262072) (0.52200001 0.1945 0.262072) (-0.42199999 0.1945 0.050000001) (0.52200001 0.1945 0.050000001) (0.52200001 -0.1945 0.050000001) (-0.42199999 -0.1945 0.050000001) (0.31338799 -0.1945 0.338) (0.31338799 0.1945 0.338))

// edges:

14
(
(0 8)
(1 0)
(9 1)
(2 3)
(8 2)
(3 9)
(5 4)
(4 1)
(3 5)
(2 6)
(6 5)
(0 7)
(7 6)
(7 4)
)

// * * * * * * * * * * * * * * * * * * * * * * * * * * * * * * * * * * * * * //

// ************************************************************************* //
