/*--------------------------------*- C++ -*----------------------------------*\
| =========                 |                                                 |
| \\      /  F ield         | OpenFOAM: The Open Source CFD Toolbox           |
|  \\    /   O peration     | Version:  4.x                                   |
|   \\  /    A nd           | Web:      www.OpenFOAM.org                      |
|    \\/     M anipulation  |                                                 |
\*---------------------------------------------------------------------------*/
FoamFile
{
    version     2.0;
    format      ascii;
    class       featureEdgeMesh;
    object      ab2.eMesh;
}
// * * * * * * * * * * * * * * * * * * * * * * * * * * * * * * * * * * * * * //

// points:

176
(
(-0.42199999 -0.1945 0.338)
(-0.42199999 -0.1945 0.050000001)
(-0.42199999 0.1945 0.338)
(-0.42199999 0.1945 0.050000001)
(-0.42418101 0.19447599 0.050023802)
(-0.42418101 0.19447599 0.33797601)
(-0.42636201 0.194405 0.050095201)
(-0.42636201 0.194405 0.33790499)
(-0.42853999 0.194286 0.050214101)
(-0.42853999 0.194286 0.33778599)
(-0.43071601 0.19411901 0.050380498)
(-0.43071601 0.19411901 0.33761901)
(-0.43288699 0.19390599 0.050594401)
(-0.43288699 0.19390599 0.33740601)
(-0.43505299 0.193644 0.050855499)
(-0.43505299 0.193644 0.33714399)
(-0.43721199 0.193336 0.0511638)
(-0.43721199 0.193336 0.33683601)
(-0.439365 0.192981 0.0515192)
(-0.439365 0.192981 0.336481)
(-0.44150901 0.192579 0.051921502)
(-0.44150901 0.192579 0.336079)
(-0.44364399 0.19213 0.052370399)
(-0.44364399 0.19213 0.33563)
(-0.44576901 0.191634 0.0528658)
(-0.44576901 0.191634 0.335134)
(-0.447882 0.191093 0.053407401)
(-0.447882 0.191093 0.334593)
(-0.449983 0.190505 0.334005)
(-0.449983 0.190505 0.053994998)
(-0.45207101 0.189872 0.333372)
(-0.45207101 0.189872 0.054628301)
(-0.454144 0.189193 0.33269301)
(-0.454144 0.189193 0.055307001)
(-0.456202 0.18846899 0.33196899)
(-0.456202 0.18846899 0.056030702)
(-0.458244 0.187701 0.056799199)
(-0.458244 0.187701 0.33120099)
(-0.46026799 0.18688799 0.057611998)
(-0.46026799 0.18688799 0.33038801)
(-0.462275 0.186031 0.058468901)
(-0.462275 0.186031 0.32953101)
(-0.46426201 0.185131 0.059369199)
(-0.46426201 0.185131 0.32863101)
(-0.46622899 0.184187 0.0603127)
(-0.46622899 0.184187 0.327687)
(-0.46817499 0.183201 0.061298899)
(-0.46817499 0.183201 0.32670099)
(-0.470099 0.182173 0.32567301)
(-0.470099 0.182173 0.062327299)
(-0.472 0.18110301 0.32460299)
(-0.472 0.18110301 0.063397497)
(-0.47387701 0.17999101 0.32349101)
(-0.47387701 0.17999101 0.064508803)
(-0.47573 0.178839 0.322339)
(-0.47573 0.178839 0.065660901)
(-0.477557 0.17764699 0.066853002)
(-0.477557 0.17764699 0.32114699)
(-0.47935799 0.176415 0.068084799)
(-0.47935799 0.176415 0.319915)
(-0.48113099 0.175144 0.069355503)
(-0.48113099 0.175144 0.31864399)
(-0.482876 0.17383499 0.31733501)
(-0.482876 0.17383499 0.070664696)
(-0.48459199 0.172488 0.072011597)
(-0.48459199 0.172488 0.315988)
(-0.48627901 0.171104 0.31460401)
(-0.48627901 0.171104 0.073395602)
(-0.48955899 0.168228 0.076272301)
(-0.48955899 0.168228 0.311728)
(-0.49271101 0.16521101 0.079289302)
(-0.49271101 0.16521101 0.30871099)
(-0.49572799 0.16205899 0.082441002)
(-0.49572799 0.16205899 0.30555901)
(-0.498604 0.158779 0.085721202)
(-0.498604 0.158779 0.302279)
(-0.50133502 0.155376 0.089123897)
(-0.50133502 0.155376 0.29887599)
(-0.50391501 0.151858 0.092642397)
(-0.50391501 0.151858 0.295358)
(-0.50633901 0.14823 0.096270002)
(-0.50633901 0.14823 0.29172999)
(-0.50860298 0.1445 0.1)
(-0.50860298 0.1445 0.28799999)
(-0.510701 0.14067499 0.103825)
(-0.510701 0.14067499 0.28417501)
(-0.512631 0.13676199 0.107738)
(-0.512631 0.13676199 0.28026199)
(-0.51438802 0.13276801 0.111732)
(-0.51438802 0.13276801 0.27626801)
(-0.42418101 -0.19447599 0.050023802)
(-0.42418101 -0.19447599 0.33797601)
(-0.42636201 -0.194405 0.050095201)
(-0.42636201 -0.194405 0.33790499)
(-0.42853999 -0.194286 0.33778599)
(-0.42853999 -0.194286 0.050214101)
(-0.43071601 -0.19411901 0.33761901)
(-0.43071601 -0.19411901 0.050380498)
(-0.43288699 -0.19390599 0.33740601)
(-0.43288699 -0.19390599 0.050594401)
(-0.43505299 -0.193644 0.33714399)
(-0.43505299 -0.193644 0.050855499)
(-0.43721199 -0.193336 0.33683601)
(-0.43721199 -0.193336 0.0511638)
(-0.439365 -0.192981 0.336481)
(-0.439365 -0.192981 0.0515192)
(-0.44150901 -0.192579 0.051921502)
(-0.44150901 -0.192579 0.336079)
(-0.44364399 -0.19213 0.052370399)
(-0.44364399 -0.19213 0.33563)
(-0.44576901 -0.191634 0.335134)
(-0.44576901 -0.191634 0.0528658)
(-0.447882 -0.191093 0.334593)
(-0.447882 -0.191093 0.053407401)
(-0.449983 -0.190505 0.334005)
(-0.449983 -0.190505 0.053994998)
(-0.45207101 -0.189872 0.333372)
(-0.45207101 -0.189872 0.054628301)
(-0.454144 -0.189193 0.33269301)
(-0.454144 -0.189193 0.055307001)
(-0.456202 -0.18846899 0.33196899)
(-0.456202 -0.18846899 0.056030702)
(-0.458244 -0.187701 0.33120099)
(-0.458244 -0.187701 0.056799199)
(-0.46026799 -0.18688799 0.33038801)
(-0.46026799 -0.18688799 0.057611998)
(-0.462275 -0.186031 0.32953101)
(-0.462275 -0.186031 0.058468901)
(-0.46426201 -0.185131 0.32863101)
(-0.46426201 -0.185131 0.059369199)
(-0.46622899 -0.184187 0.327687)
(-0.46622899 -0.184187 0.0603127)
(-0.46817499 -0.183201 0.32670099)
(-0.46817499 -0.183201 0.061298899)
(-0.470099 -0.182173 0.062327299)
(-0.470099 -0.182173 0.32567301)
(-0.472 -0.18110301 0.063397497)
(-0.472 -0.18110301 0.32460299)
(-0.47387701 -0.17999101 0.32349101)
(-0.47387701 -0.17999101 0.064508803)
(-0.47573 -0.178839 0.322339)
(-0.47573 -0.178839 0.065660901)
(-0.477557 -0.17764699 0.066853002)
(-0.477557 -0.17764699 0.32114699)
(-0.47935799 -0.176415 0.068084799)
(-0.47935799 -0.176415 0.319915)
(-0.48113099 -0.175144 0.069355503)
(-0.48113099 -0.175144 0.31864399)
(-0.482876 -0.17383499 0.070664696)
(-0.482876 -0.17383499 0.31733501)
(-0.48459199 -0.172488 0.072011597)
(-0.48459199 -0.172488 0.315988)
(-0.48627901 -0.171104 0.073395602)
(-0.48627901 -0.171104 0.31460401)
(-0.48955899 -0.168228 0.311728)
(-0.48955899 -0.168228 0.076272301)
(-0.49271101 -0.16521101 0.30871099)
(-0.49271101 -0.16521101 0.079289302)
(-0.49572799 -0.16205899 0.30555901)
(-0.49572799 -0.16205899 0.082441002)
(-0.498604 -0.158779 0.302279)
(-0.498604 -0.158779 0.085721202)
(-0.50133502 -0.155376 0.29887599)
(-0.50133502 -0.155376 0.089123897)
(-0.50391501 -0.151858 0.295358)
(-0.50391501 -0.151858 0.092642397)
(-0.50633901 -0.14823 0.29172999)
(-0.50633901 -0.14823 0.096270002)
(-0.50860298 -0.1445 0.28799999)
(-0.50860298 -0.1445 0.1)
(-0.510701 -0.14067499 0.28417501)
(-0.510701 -0.14067499 0.103825)
(-0.512631 -0.13676199 0.28026199)
(-0.512631 -0.13676199 0.107738)
(-0.51438802 -0.13276801 0.27626801)
(-0.51438802 -0.13276801 0.111732)
)

// edges:

176
(
(0 1)
(2 0)
(3 2)
(1 3)
(3 4)
(5 2)
(4 6)
(7 5)
(6 8)
(9 7)
(8 10)
(11 9)
(10 12)
(13 11)
(12 14)
(15 13)
(14 16)
(17 15)
(16 18)
(19 17)
(18 20)
(21 19)
(20 22)
(23 21)
(22 24)
(25 23)
(24 26)
(27 25)
(28 27)
(26 29)
(30 28)
(29 31)
(32 30)
(31 33)
(34 32)
(33 35)
(35 36)
(37 34)
(36 38)
(39 37)
(38 40)
(41 39)
(40 42)
(43 41)
(42 44)
(45 43)
(44 46)
(47 45)
(48 47)
(46 49)
(50 48)
(49 51)
(52 50)
(51 53)
(54 52)
(53 55)
(55 56)
(57 54)
(56 58)
(59 57)
(58 60)
(61 59)
(62 61)
(60 63)
(63 64)
(65 62)
(66 65)
(64 67)
(67 68)
(69 66)
(68 70)
(71 69)
(70 72)
(73 71)
(72 74)
(75 73)
(74 76)
(77 75)
(76 78)
(79 77)
(78 80)
(81 79)
(80 82)
(83 81)
(82 84)
(85 83)
(84 86)
(87 85)
(86 88)
(89 87)
(90 1)
(0 91)
(92 90)
(91 93)
(93 94)
(95 92)
(94 96)
(97 95)
(96 98)
(99 97)
(98 100)
(101 99)
(100 102)
(103 101)
(102 104)
(105 103)
(106 105)
(104 107)
(108 106)
(107 109)
(109 110)
(111 108)
(110 112)
(113 111)
(112 114)
(115 113)
(114 116)
(117 115)
(116 118)
(119 117)
(118 120)
(121 119)
(120 122)
(123 121)
(122 124)
(125 123)
(124 126)
(127 125)
(126 128)
(129 127)
(128 130)
(131 129)
(130 132)
(133 131)
(134 133)
(132 135)
(136 134)
(135 137)
(137 138)
(139 136)
(138 140)
(141 139)
(142 141)
(140 143)
(144 142)
(143 145)
(146 144)
(145 147)
(148 146)
(147 149)
(150 148)
(149 151)
(152 150)
(151 153)
(153 154)
(155 152)
(154 156)
(157 155)
(156 158)
(159 157)
(158 160)
(161 159)
(160 162)
(163 161)
(162 164)
(165 163)
(164 166)
(167 165)
(166 168)
(169 167)
(168 170)
(171 169)
(170 172)
(173 171)
(172 174)
(175 173)
)

// * * * * * * * * * * * * * * * * * * * * * * * * * * * * * * * * * * * * * //

// ************************************************************************* //
