/*--------------------------------*- C++ -*----------------------------------*\
| =========                 |                                                 |
| \\      /  F ield         | OpenFOAM: The Open Source CFD Toolbox           |
|  \\    /   O peration     | Version:  4.x                                   |
|   \\  /    A nd           | Web:      www.OpenFOAM.org                      |
|    \\/     M anipulation  |                                                 |
\*---------------------------------------------------------------------------*/
FoamFile
{
    version     2.0;
    format      ascii;
    class       featureEdgeMesh;
    object      support.eMesh;
}
// * * * * * * * * * * * * * * * * * * * * * * * * * * * * * * * * * * * * * //

// points:

1154
(
(0.135057 -0.162193 0.050000001)
(0.135014 -0.162846 0.050000001)
(0.13500001 -0.1635 0.050000001)
(0.135014 -0.16415399 0.050000001)
(0.13535599 -0.160253 0.050000001)
(0.13522799 -0.160895 0.050000001)
(0.13512801 -0.161542 0.050000001)
(0.135905 -0.15837 0.050000001)
(0.135694 -0.158989 0.050000001)
(0.135511 -0.15961801 0.050000001)
(0.136695 -0.156574 0.050000001)
(0.13640501 -0.157161 0.050000001)
(0.136142 -0.15775999 0.050000001)
(0.137713 -0.15489601 0.050000001)
(0.13734899 -0.155441 0.050000001)
(0.13700999 -0.156 0.050000001)
(0.138941 -0.153366 0.050000001)
(0.13850901 -0.15385801 0.050000001)
(0.1381 -0.154369 0.050000001)
(0.140358 -0.152009 0.050000001)
(0.13986599 -0.15244099 0.050000001)
(0.139393 -0.15289301 0.050000001)
(0.141941 -0.150849 0.050000001)
(0.141396 -0.15121301 0.050000001)
(0.14086901 -0.1516 0.050000001)
(0.14366101 -0.149905 0.050000001)
(0.14307401 -0.150195 0.050000001)
(0.1425 -0.15051 0.050000001)
(0.14548901 -0.149194 0.050000001)
(0.14487 -0.149405 0.050000001)
(0.14426 -0.14964201 0.050000001)
(0.147395 -0.148728 0.050000001)
(0.146753 -0.148856 0.050000001)
(0.146118 -0.149011 0.050000001)
(0.14934599 -0.148514 0.050000001)
(0.148693 -0.14855701 0.050000001)
(0.14804199 -0.148628 0.050000001)
(0.151307 -0.14855701 0.050000001)
(0.150654 -0.148514 0.050000001)
(0.15000001 -0.1485 0.050000001)
(0.153247 -0.148856 0.050000001)
(0.152605 -0.148728 0.050000001)
(0.151958 -0.148628 0.050000001)
(0.15513 -0.149405 0.050000001)
(0.154511 -0.149194 0.050000001)
(0.153882 -0.149011 0.050000001)
(0.15692601 -0.150195 0.050000001)
(0.156339 -0.149905 0.050000001)
(0.15573999 -0.14964201 0.050000001)
(0.158604 -0.15121301 0.050000001)
(0.158059 -0.150849 0.050000001)
(0.1575 -0.15051 0.050000001)
(0.160134 -0.15244099 0.050000001)
(0.159642 -0.152009 0.050000001)
(0.15913101 -0.1516 0.050000001)
(0.16149101 -0.15385801 0.050000001)
(0.16105901 -0.153366 0.050000001)
(0.160607 -0.15289301 0.050000001)
(0.162651 -0.155441 0.050000001)
(0.162287 -0.15489601 0.050000001)
(0.1619 -0.154369 0.050000001)
(0.16359501 -0.157161 0.050000001)
(0.163305 -0.156574 0.050000001)
(0.16299 -0.156 0.050000001)
(0.164306 -0.158989 0.050000001)
(0.164095 -0.15837 0.050000001)
(0.163858 -0.15775999 0.050000001)
(0.164772 -0.160895 0.050000001)
(0.164644 -0.160253 0.050000001)
(0.164489 -0.15961801 0.050000001)
(0.164986 -0.162846 0.050000001)
(0.16494299 -0.162193 0.050000001)
(0.16487201 -0.161542 0.050000001)
(0.16494299 -0.16480701 0.050000001)
(0.164986 -0.16415399 0.050000001)
(0.16500001 -0.1635 0.050000001)
(0.164644 -0.166747 0.050000001)
(0.164772 -0.166105 0.050000001)
(0.16487201 -0.16545799 0.050000001)
(0.164095 -0.16863 0.050000001)
(0.164306 -0.16801099 0.050000001)
(0.164489 -0.167382 0.050000001)
(0.163305 -0.170426 0.050000001)
(0.16359501 -0.16983899 0.050000001)
(0.163858 -0.16924 0.050000001)
(0.162287 -0.172104 0.050000001)
(0.162651 -0.17155901 0.050000001)
(0.16299 -0.171 0.050000001)
(0.16105901 -0.17363399 0.050000001)
(0.16149101 -0.173142 0.050000001)
(0.1619 -0.172631 0.050000001)
(0.159642 -0.174991 0.050000001)
(0.160134 -0.174559 0.050000001)
(0.160607 -0.174107 0.050000001)
(0.158059 -0.17615101 0.050000001)
(0.158604 -0.175787 0.050000001)
(0.15913101 -0.1754 0.050000001)
(0.156339 -0.177095 0.050000001)
(0.15692601 -0.176805 0.050000001)
(0.1575 -0.17648999 0.050000001)
(0.154511 -0.177806 0.050000001)
(0.15513 -0.177595 0.050000001)
(0.15573999 -0.177358 0.050000001)
(0.152605 -0.17827199 0.050000001)
(0.153247 -0.17814399 0.050000001)
(0.153882 -0.17798901 0.050000001)
(0.150654 -0.178486 0.050000001)
(0.151307 -0.178443 0.050000001)
(0.151958 -0.178372 0.050000001)
(0.148693 -0.178443 0.050000001)
(0.14934599 -0.178486 0.050000001)
(0.15000001 -0.1785 0.050000001)
(0.146753 -0.17814399 0.050000001)
(0.147395 -0.17827199 0.050000001)
(0.14804199 -0.178372 0.050000001)
(0.14487 -0.177595 0.050000001)
(0.14548901 -0.177806 0.050000001)
(0.146118 -0.17798901 0.050000001)
(0.14307401 -0.176805 0.050000001)
(0.14366101 -0.177095 0.050000001)
(0.14426 -0.177358 0.050000001)
(0.141396 -0.175787 0.050000001)
(0.141941 -0.17615101 0.050000001)
(0.1425 -0.17648999 0.050000001)
(0.13986599 -0.174559 0.050000001)
(0.140358 -0.174991 0.050000001)
(0.14086901 -0.1754 0.050000001)
(0.13850901 -0.173142 0.050000001)
(0.138941 -0.17363399 0.050000001)
(0.139393 -0.174107 0.050000001)
(0.13734899 -0.17155901 0.050000001)
(0.137713 -0.172104 0.050000001)
(0.1381 -0.172631 0.050000001)
(0.13640501 -0.16983899 0.050000001)
(0.136695 -0.170426 0.050000001)
(0.13700999 -0.171 0.050000001)
(0.135694 -0.16801099 0.050000001)
(0.135905 -0.16863 0.050000001)
(0.136142 -0.16924 0.050000001)
(0.13522799 -0.166105 0.050000001)
(0.13535599 -0.166747 0.050000001)
(0.135511 -0.167382 0.050000001)
(0.135057 -0.16480701 0.050000001)
(0.13512801 -0.16545799 0.050000001)
(0.164986 -0.162846 0)
(0.16494299 -0.162193 0)
(0.16487201 -0.161542 0)
(0.164772 -0.160895 0)
(0.164644 -0.160253 0)
(0.164489 -0.15961801 0)
(0.164306 -0.158989 0)
(0.164095 -0.15837 0)
(0.163858 -0.15775999 0)
(0.16359501 -0.157161 0)
(0.163305 -0.156574 0)
(0.16299 -0.156 0)
(0.162651 -0.155441 0)
(0.162287 -0.15489601 0)
(0.1619 -0.154369 0)
(0.16149101 -0.15385801 0)
(0.16105901 -0.153366 0)
(0.160607 -0.15289301 0)
(0.160134 -0.15244099 0)
(0.159642 -0.152009 0)
(0.15913101 -0.1516 0)
(0.158604 -0.15121301 0)
(0.158059 -0.150849 0)
(0.1575 -0.15051 0)
(0.15692601 -0.150195 0)
(0.156339 -0.149905 0)
(0.15573999 -0.14964201 0)
(0.15513 -0.149405 0)
(0.154511 -0.149194 0)
(0.153882 -0.149011 0)
(0.153247 -0.148856 0)
(0.152605 -0.148728 0)
(0.151958 -0.148628 0)
(0.151307 -0.14855701 0)
(0.150654 -0.148514 0)
(0.15000001 -0.1485 0)
(0.14934599 -0.148514 0)
(0.148693 -0.14855701 0)
(0.14804199 -0.148628 0)
(0.147395 -0.148728 0)
(0.146753 -0.148856 0)
(0.146118 -0.149011 0)
(0.14548901 -0.149194 0)
(0.14487 -0.149405 0)
(0.14426 -0.14964201 0)
(0.14366101 -0.149905 0)
(0.14307401 -0.150195 0)
(0.1425 -0.15051 0)
(0.141941 -0.150849 0)
(0.141396 -0.15121301 0)
(0.14086901 -0.1516 0)
(0.140358 -0.152009 0)
(0.13986599 -0.15244099 0)
(0.139393 -0.15289301 0)
(0.138941 -0.153366 0)
(0.13850901 -0.15385801 0)
(0.1381 -0.154369 0)
(0.137713 -0.15489601 0)
(0.13734899 -0.155441 0)
(0.13700999 -0.156 0)
(0.136695 -0.156574 0)
(0.13640501 -0.157161 0)
(0.136142 -0.15775999 0)
(0.135905 -0.15837 0)
(0.135694 -0.158989 0)
(0.135511 -0.15961801 0)
(0.13535599 -0.160253 0)
(0.13522799 -0.160895 0)
(0.13512801 -0.161542 0)
(0.135057 -0.162193 0)
(0.135014 -0.162846 0)
(0.13500001 -0.1635 0)
(0.135014 -0.16415399 0)
(0.135057 -0.16480701 0)
(0.13512801 -0.16545799 0)
(0.13522799 -0.166105 0)
(0.13535599 -0.166747 0)
(0.135511 -0.167382 0)
(0.135694 -0.16801099 0)
(0.135905 -0.16863 0)
(0.136142 -0.16924 0)
(0.13640501 -0.16983899 0)
(0.136695 -0.170426 0)
(0.13700999 -0.171 0)
(0.13734899 -0.17155901 0)
(0.137713 -0.172104 0)
(0.1381 -0.172631 0)
(0.13850901 -0.173142 0)
(0.138941 -0.17363399 0)
(0.139393 -0.174107 0)
(0.13986599 -0.174559 0)
(0.140358 -0.174991 0)
(0.14086901 -0.1754 0)
(0.141396 -0.175787 0)
(0.141941 -0.17615101 0)
(0.1425 -0.17648999 0)
(0.14307401 -0.176805 0)
(0.14366101 -0.177095 0)
(0.14426 -0.177358 0)
(0.14487 -0.177595 0)
(0.14548901 -0.177806 0)
(0.146118 -0.17798901 0)
(0.146753 -0.17814399 0)
(0.147395 -0.17827199 0)
(0.14804199 -0.178372 0)
(0.148693 -0.178443 0)
(0.14934599 -0.178486 0)
(0.15000001 -0.1785 0)
(0.150654 -0.178486 0)
(0.151307 -0.178443 0)
(0.151958 -0.178372 0)
(0.152605 -0.17827199 0)
(0.153247 -0.17814399 0)
(0.153882 -0.17798901 0)
(0.154511 -0.177806 0)
(0.15513 -0.177595 0)
(0.15573999 -0.177358 0)
(0.156339 -0.177095 0)
(0.15692601 -0.176805 0)
(0.1575 -0.17648999 0)
(0.158059 -0.17615101 0)
(0.158604 -0.175787 0)
(0.15913101 -0.1754 0)
(0.159642 -0.174991 0)
(0.160134 -0.174559 0)
(0.160607 -0.174107 0)
(0.16105901 -0.17363399 0)
(0.16149101 -0.173142 0)
(0.1619 -0.172631 0)
(0.162287 -0.172104 0)
(0.162651 -0.17155901 0)
(0.16299 -0.171 0)
(0.163305 -0.170426 0)
(0.16359501 -0.16983899 0)
(0.163858 -0.16924 0)
(0.164095 -0.16863 0)
(0.164306 -0.16801099 0)
(0.164489 -0.167382 0)
(0.164644 -0.166747 0)
(0.164772 -0.166105 0)
(0.16487201 -0.16545799 0)
(0.16494299 -0.16480701 0)
(0.164986 -0.16415399 0)
(0.16500001 -0.1635 0)
(0.164986 0.16415399 0.050000001)
(0.16500001 0.1635 0.050000001)
(0.164986 0.16415399 0)
(0.16494299 0.16480701 0)
(0.16494299 0.16480701 0.050000001)
(0.16487201 0.16545799 0)
(0.16487201 0.16545799 0.050000001)
(0.164772 0.166105 0)
(0.164772 0.166105 0.050000001)
(0.164644 0.166747 0)
(0.164644 0.166747 0.050000001)
(0.164489 0.167382 0)
(0.164489 0.167382 0.050000001)
(0.164306 0.16801099 0)
(0.164306 0.16801099 0.050000001)
(0.164095 0.16863 0)
(0.164095 0.16863 0.050000001)
(0.163858 0.16924 0)
(0.163858 0.16924 0.050000001)
(0.16359501 0.16983899 0)
(0.16359501 0.16983899 0.050000001)
(0.163305 0.170426 0)
(0.163305 0.170426 0.050000001)
(0.16299 0.171 0)
(0.16299 0.171 0.050000001)
(0.162651 0.17155901 0)
(0.162651 0.17155901 0.050000001)
(0.162287 0.172104 0)
(0.162287 0.172104 0.050000001)
(0.1619 0.172631 0)
(0.1619 0.172631 0.050000001)
(0.16149101 0.173142 0)
(0.16149101 0.173142 0.050000001)
(0.16105901 0.17363399 0)
(0.16105901 0.17363399 0.050000001)
(0.160607 0.174107 0)
(0.160607 0.174107 0.050000001)
(0.160134 0.174559 0)
(0.160134 0.174559 0.050000001)
(0.159642 0.174991 0)
(0.159642 0.174991 0.050000001)
(0.15913101 0.1754 0)
(0.15913101 0.1754 0.050000001)
(0.158604 0.175787 0)
(0.158604 0.175787 0.050000001)
(0.158059 0.17615101 0)
(0.158059 0.17615101 0.050000001)
(0.1575 0.17648999 0)
(0.1575 0.17648999 0.050000001)
(0.15692601 0.176805 0)
(0.15692601 0.176805 0.050000001)
(0.156339 0.177095 0)
(0.156339 0.177095 0.050000001)
(0.15573999 0.177358 0)
(0.15573999 0.177358 0.050000001)
(0.15513 0.177595 0)
(0.15513 0.177595 0.050000001)
(0.154511 0.177806 0)
(0.154511 0.177806 0.050000001)
(0.153882 0.17798901 0)
(0.153882 0.17798901 0.050000001)
(0.153247 0.17814399 0)
(0.153247 0.17814399 0.050000001)
(0.152605 0.17827199 0)
(0.152605 0.17827199 0.050000001)
(0.151958 0.178372 0)
(0.151958 0.178372 0.050000001)
(0.151307 0.178443 0)
(0.151307 0.178443 0.050000001)
(0.150654 0.178486 0)
(0.150654 0.178486 0.050000001)
(0.15000001 0.1785 0)
(0.15000001 0.1785 0.050000001)
(0.14934599 0.178486 0)
(0.14934599 0.178486 0.050000001)
(0.148693 0.178443 0)
(0.148693 0.178443 0.050000001)
(0.14804199 0.178372 0)
(0.14804199 0.178372 0.050000001)
(0.147395 0.17827199 0)
(0.147395 0.17827199 0.050000001)
(0.146753 0.17814399 0)
(0.146753 0.17814399 0.050000001)
(0.146118 0.17798901 0)
(0.146118 0.17798901 0.050000001)
(0.14548901 0.177806 0)
(0.14548901 0.177806 0.050000001)
(0.14487 0.177595 0)
(0.14487 0.177595 0.050000001)
(0.14426 0.177358 0)
(0.14426 0.177358 0.050000001)
(0.14366101 0.177095 0)
(0.14366101 0.177095 0.050000001)
(0.14307401 0.176805 0)
(0.14307401 0.176805 0.050000001)
(0.1425 0.17648999 0)
(0.1425 0.17648999 0.050000001)
(0.141941 0.17615101 0)
(0.141941 0.17615101 0.050000001)
(0.141396 0.175787 0)
(0.141396 0.175787 0.050000001)
(0.14086901 0.1754 0)
(0.14086901 0.1754 0.050000001)
(0.140358 0.174991 0)
(0.140358 0.174991 0.050000001)
(0.13986599 0.174559 0)
(0.13986599 0.174559 0.050000001)
(0.139393 0.174107 0)
(0.139393 0.174107 0.050000001)
(0.138941 0.17363399 0)
(0.138941 0.17363399 0.050000001)
(0.13850901 0.173142 0)
(0.13850901 0.173142 0.050000001)
(0.1381 0.172631 0)
(0.1381 0.172631 0.050000001)
(0.137713 0.172104 0)
(0.137713 0.172104 0.050000001)
(0.13734899 0.17155901 0)
(0.13734899 0.17155901 0.050000001)
(0.13700999 0.171 0)
(0.13700999 0.171 0.050000001)
(0.136695 0.170426 0)
(0.136695 0.170426 0.050000001)
(0.13640501 0.16983899 0)
(0.13640501 0.16983899 0.050000001)
(0.136142 0.16924 0)
(0.136142 0.16924 0.050000001)
(0.135905 0.16863 0)
(0.135905 0.16863 0.050000001)
(0.135694 0.16801099 0)
(0.135694 0.16801099 0.050000001)
(0.135511 0.167382 0)
(0.135511 0.167382 0.050000001)
(0.13535599 0.166747 0)
(0.13535599 0.166747 0.050000001)
(0.13522799 0.166105 0)
(0.13522799 0.166105 0.050000001)
(0.13512801 0.16545799 0)
(0.13512801 0.16545799 0.050000001)
(0.135057 0.16480701 0)
(0.135057 0.16480701 0.050000001)
(0.135014 0.16415399 0)
(0.135014 0.16415399 0.050000001)
(0.13500001 0.1635 0)
(0.13500001 0.1635 0.050000001)
(0.135014 0.162846 0)
(0.135014 0.162846 0.050000001)
(0.135057 0.162193 0)
(0.135057 0.162193 0.050000001)
(0.13512801 0.161542 0)
(0.13512801 0.161542 0.050000001)
(0.13522799 0.160895 0)
(0.13522799 0.160895 0.050000001)
(0.13535599 0.160253 0)
(0.13535599 0.160253 0.050000001)
(0.135511 0.15961801 0)
(0.135511 0.15961801 0.050000001)
(0.135694 0.158989 0)
(0.135694 0.158989 0.050000001)
(0.135905 0.15837 0)
(0.135905 0.15837 0.050000001)
(0.136142 0.15775999 0)
(0.136142 0.15775999 0.050000001)
(0.13640501 0.157161 0)
(0.13640501 0.157161 0.050000001)
(0.136695 0.156574 0)
(0.136695 0.156574 0.050000001)
(0.13700999 0.156 0)
(0.13700999 0.156 0.050000001)
(0.13734899 0.155441 0)
(0.13734899 0.155441 0.050000001)
(0.137713 0.15489601 0)
(0.137713 0.15489601 0.050000001)
(0.1381 0.154369 0)
(0.1381 0.154369 0.050000001)
(0.13850901 0.15385801 0)
(0.13850901 0.15385801 0.050000001)
(0.138941 0.153366 0)
(0.138941 0.153366 0.050000001)
(0.139393 0.15289301 0)
(0.139393 0.15289301 0.050000001)
(0.13986599 0.15244099 0)
(0.13986599 0.15244099 0.050000001)
(0.140358 0.152009 0)
(0.140358 0.152009 0.050000001)
(0.14086901 0.1516 0)
(0.14086901 0.1516 0.050000001)
(0.141396 0.15121301 0)
(0.141396 0.15121301 0.050000001)
(0.141941 0.150849 0)
(0.141941 0.150849 0.050000001)
(0.1425 0.15051 0)
(0.1425 0.15051 0.050000001)
(0.14307401 0.150195 0)
(0.14307401 0.150195 0.050000001)
(0.14366101 0.149905 0)
(0.14366101 0.149905 0.050000001)
(0.14426 0.14964201 0)
(0.14426 0.14964201 0.050000001)
(0.14487 0.149405 0)
(0.14487 0.149405 0.050000001)
(0.14548901 0.149194 0)
(0.14548901 0.149194 0.050000001)
(0.146118 0.149011 0)
(0.146118 0.149011 0.050000001)
(0.146753 0.148856 0)
(0.146753 0.148856 0.050000001)
(0.147395 0.148728 0)
(0.147395 0.148728 0.050000001)
(0.14804199 0.148628 0)
(0.14804199 0.148628 0.050000001)
(0.148693 0.14855701 0)
(0.148693 0.14855701 0.050000001)
(0.14934599 0.148514 0)
(0.14934599 0.148514 0.050000001)
(0.15000001 0.1485 0)
(0.15000001 0.1485 0.050000001)
(0.150654 0.148514 0)
(0.150654 0.148514 0.050000001)
(0.151307 0.14855701 0)
(0.151307 0.14855701 0.050000001)
(0.151958 0.148628 0)
(0.151958 0.148628 0.050000001)
(0.152605 0.148728 0)
(0.152605 0.148728 0.050000001)
(0.153247 0.148856 0)
(0.153247 0.148856 0.050000001)
(0.153882 0.149011 0)
(0.153882 0.149011 0.050000001)
(0.154511 0.149194 0)
(0.154511 0.149194 0.050000001)
(0.15513 0.149405 0)
(0.15513 0.149405 0.050000001)
(0.15573999 0.14964201 0)
(0.15573999 0.14964201 0.050000001)
(0.156339 0.149905 0)
(0.156339 0.149905 0.050000001)
(0.15692601 0.150195 0)
(0.15692601 0.150195 0.050000001)
(0.1575 0.15051 0)
(0.1575 0.15051 0.050000001)
(0.158059 0.150849 0)
(0.158059 0.150849 0.050000001)
(0.158604 0.15121301 0)
(0.158604 0.15121301 0.050000001)
(0.15913101 0.1516 0)
(0.15913101 0.1516 0.050000001)
(0.159642 0.152009 0)
(0.159642 0.152009 0.050000001)
(0.160134 0.15244099 0)
(0.160134 0.15244099 0.050000001)
(0.160607 0.15289301 0)
(0.160607 0.15289301 0.050000001)
(0.16105901 0.153366 0)
(0.16105901 0.153366 0.050000001)
(0.16149101 0.15385801 0)
(0.16149101 0.15385801 0.050000001)
(0.1619 0.154369 0)
(0.1619 0.154369 0.050000001)
(0.162287 0.15489601 0)
(0.162287 0.15489601 0.050000001)
(0.162651 0.155441 0)
(0.162651 0.155441 0.050000001)
(0.16299 0.156 0)
(0.16299 0.156 0.050000001)
(0.163305 0.156574 0)
(0.163305 0.156574 0.050000001)
(0.16359501 0.157161 0)
(0.16359501 0.157161 0.050000001)
(0.163858 0.15775999 0)
(0.163858 0.15775999 0.050000001)
(0.164095 0.15837 0)
(0.164095 0.15837 0.050000001)
(0.164306 0.158989 0)
(0.164306 0.158989 0.050000001)
(0.164489 0.15961801 0)
(0.164489 0.15961801 0.050000001)
(0.164644 0.160253 0)
(0.164644 0.160253 0.050000001)
(0.164772 0.160895 0)
(0.164772 0.160895 0.050000001)
(0.16487201 0.161542 0)
(0.16487201 0.161542 0.050000001)
(0.16494299 0.162193 0)
(0.16494299 0.162193 0.050000001)
(0.164986 0.162846 0)
(0.164986 0.162846 0.050000001)
(0.16500001 0.1635 0)
(-0.33594301 -0.162193 0.050000001)
(-0.33598599 -0.162846 0.050000001)
(-0.336 -0.1635 0.050000001)
(-0.33598599 -0.16415399 0.050000001)
(-0.33564401 -0.160253 0.050000001)
(-0.33577201 -0.160895 0.050000001)
(-0.33587199 -0.161542 0.050000001)
(-0.33509499 -0.15837 0.050000001)
(-0.33530599 -0.158989 0.050000001)
(-0.335489 -0.15961801 0.050000001)
(-0.33430499 -0.156574 0.050000001)
(-0.33459499 -0.157161 0.050000001)
(-0.334858 -0.15775999 0.050000001)
(-0.333287 -0.15489601 0.050000001)
(-0.33365101 -0.155441 0.050000001)
(-0.33399001 -0.156 0.050000001)
(-0.332059 -0.153366 0.050000001)
(-0.33249101 -0.15385801 0.050000001)
(-0.33289999 -0.154369 0.050000001)
(-0.33064201 -0.152009 0.050000001)
(-0.33113399 -0.15244099 0.050000001)
(-0.33160701 -0.15289301 0.050000001)
(-0.329059 -0.150849 0.050000001)
(-0.329604 -0.15121301 0.050000001)
(-0.33013099 -0.1516 0.050000001)
(-0.32733899 -0.149905 0.050000001)
(-0.32792601 -0.150195 0.050000001)
(-0.3285 -0.15051 0.050000001)
(-0.32551101 -0.149194 0.050000001)
(-0.32613 -0.149405 0.050000001)
(-0.32674 -0.14964201 0.050000001)
(-0.323605 -0.148728 0.050000001)
(-0.324247 -0.148856 0.050000001)
(-0.324882 -0.149011 0.050000001)
(-0.32165399 -0.148514 0.050000001)
(-0.32230699 -0.14855701 0.050000001)
(-0.32295799 -0.148628 0.050000001)
(-0.319693 -0.14855701 0.050000001)
(-0.320346 -0.148514 0.050000001)
(-0.32100001 -0.1485 0.050000001)
(-0.31775299 -0.148856 0.050000001)
(-0.31839499 -0.148728 0.050000001)
(-0.319042 -0.148628 0.050000001)
(-0.31586999 -0.149405 0.050000001)
(-0.31648901 -0.149194 0.050000001)
(-0.31711799 -0.149011 0.050000001)
(-0.31407401 -0.150195 0.050000001)
(-0.314661 -0.149905 0.050000001)
(-0.31525999 -0.14964201 0.050000001)
(-0.31239599 -0.15121301 0.050000001)
(-0.31294101 -0.150849 0.050000001)
(-0.31349999 -0.15051 0.050000001)
(-0.310866 -0.15244099 0.050000001)
(-0.311358 -0.152009 0.050000001)
(-0.311869 -0.1516 0.050000001)
(-0.30950901 -0.15385801 0.050000001)
(-0.30994099 -0.153366 0.050000001)
(-0.31039301 -0.15289301 0.050000001)
(-0.30834901 -0.155441 0.050000001)
(-0.30871299 -0.15489601 0.050000001)
(-0.3091 -0.154369 0.050000001)
(-0.30740499 -0.157161 0.050000001)
(-0.307695 -0.156574 0.050000001)
(-0.30801001 -0.156 0.050000001)
(-0.306694 -0.158989 0.050000001)
(-0.306905 -0.15837 0.050000001)
(-0.30714199 -0.15775999 0.050000001)
(-0.30622801 -0.160895 0.050000001)
(-0.30635601 -0.160253 0.050000001)
(-0.30651101 -0.15961801 0.050000001)
(-0.306014 -0.162846 0.050000001)
(-0.30605701 -0.162193 0.050000001)
(-0.306128 -0.161542 0.050000001)
(-0.30605701 -0.16480701 0.050000001)
(-0.306014 -0.16415399 0.050000001)
(-0.30599999 -0.1635 0.050000001)
(-0.30635601 -0.166747 0.050000001)
(-0.30622801 -0.166105 0.050000001)
(-0.306128 -0.16545799 0.050000001)
(-0.306905 -0.16863 0.050000001)
(-0.306694 -0.16801099 0.050000001)
(-0.30651101 -0.167382 0.050000001)
(-0.307695 -0.170426 0.050000001)
(-0.30740499 -0.16983899 0.050000001)
(-0.30714199 -0.16924 0.050000001)
(-0.30871299 -0.172104 0.050000001)
(-0.30834901 -0.17155901 0.050000001)
(-0.30801001 -0.171 0.050000001)
(-0.30994099 -0.17363399 0.050000001)
(-0.30950901 -0.173142 0.050000001)
(-0.3091 -0.172631 0.050000001)
(-0.311358 -0.174991 0.050000001)
(-0.310866 -0.174559 0.050000001)
(-0.31039301 -0.174107 0.050000001)
(-0.31294101 -0.17615101 0.050000001)
(-0.31239599 -0.175787 0.050000001)
(-0.311869 -0.1754 0.050000001)
(-0.314661 -0.177095 0.050000001)
(-0.31407401 -0.176805 0.050000001)
(-0.31349999 -0.17648999 0.050000001)
(-0.31648901 -0.177806 0.050000001)
(-0.31586999 -0.177595 0.050000001)
(-0.31525999 -0.177358 0.050000001)
(-0.31839499 -0.17827199 0.050000001)
(-0.31775299 -0.17814399 0.050000001)
(-0.31711799 -0.17798901 0.050000001)
(-0.320346 -0.178486 0.050000001)
(-0.319693 -0.178443 0.050000001)
(-0.319042 -0.178372 0.050000001)
(-0.32230699 -0.178443 0.050000001)
(-0.32165399 -0.178486 0.050000001)
(-0.32100001 -0.1785 0.050000001)
(-0.324247 -0.17814399 0.050000001)
(-0.323605 -0.17827199 0.050000001)
(-0.32295799 -0.178372 0.050000001)
(-0.32613 -0.177595 0.050000001)
(-0.32551101 -0.177806 0.050000001)
(-0.324882 -0.17798901 0.050000001)
(-0.32792601 -0.176805 0.050000001)
(-0.32733899 -0.177095 0.050000001)
(-0.32674 -0.177358 0.050000001)
(-0.329604 -0.175787 0.050000001)
(-0.329059 -0.17615101 0.050000001)
(-0.3285 -0.17648999 0.050000001)
(-0.33113399 -0.174559 0.050000001)
(-0.33064201 -0.174991 0.050000001)
(-0.33013099 -0.1754 0.050000001)
(-0.33249101 -0.173142 0.050000001)
(-0.332059 -0.17363399 0.050000001)
(-0.33160701 -0.174107 0.050000001)
(-0.33365101 -0.17155901 0.050000001)
(-0.333287 -0.172104 0.050000001)
(-0.33289999 -0.172631 0.050000001)
(-0.33459499 -0.16983899 0.050000001)
(-0.33430499 -0.170426 0.050000001)
(-0.33399001 -0.171 0.050000001)
(-0.33530599 -0.16801099 0.050000001)
(-0.33509499 -0.16863 0.050000001)
(-0.334858 -0.16924 0.050000001)
(-0.33577201 -0.166105 0.050000001)
(-0.33564401 -0.166747 0.050000001)
(-0.335489 -0.167382 0.050000001)
(-0.33594301 -0.16480701 0.050000001)
(-0.33587199 -0.16545799 0.050000001)
(-0.306014 -0.162846 0)
(-0.306021 -0.16271301 0)
(-0.30605701 -0.162193 0)
(-0.306128 -0.161542 0)
(-0.30622801 -0.160895 0)
(-0.30635601 -0.160253 0)
(-0.30651101 -0.15961801 0)
(-0.306694 -0.158989 0)
(-0.306905 -0.15837 0)
(-0.30714199 -0.15775999 0)
(-0.30740499 -0.157161 0)
(-0.307695 -0.156574 0)
(-0.30801001 -0.156 0)
(-0.30834901 -0.155441 0)
(-0.30871299 -0.15489601 0)
(-0.3091 -0.154369 0)
(-0.30950901 -0.15385801 0)
(-0.30994099 -0.153366 0)
(-0.31039301 -0.15289301 0)
(-0.310866 -0.15244099 0)
(-0.311358 -0.152009 0)
(-0.311869 -0.1516 0)
(-0.31239599 -0.15121301 0)
(-0.31294101 -0.150849 0)
(-0.31349999 -0.15051 0)
(-0.31407401 -0.150195 0)
(-0.314661 -0.149905 0)
(-0.31525999 -0.14964201 0)
(-0.31586999 -0.149405 0)
(-0.31648901 -0.149194 0)
(-0.31711799 -0.149011 0)
(-0.31775299 -0.148856 0)
(-0.31839499 -0.148728 0)
(-0.319042 -0.148628 0)
(-0.319693 -0.14855701 0)
(-0.320346 -0.148514 0)
(-0.32100001 -0.1485 0)
(-0.32165399 -0.148514 0)
(-0.32230699 -0.14855701 0)
(-0.32295799 -0.148628 0)
(-0.323605 -0.148728 0)
(-0.324247 -0.148856 0)
(-0.324882 -0.149011 0)
(-0.32551101 -0.149194 0)
(-0.32613 -0.149405 0)
(-0.32674 -0.14964201 0)
(-0.32733899 -0.149905 0)
(-0.32792601 -0.150195 0)
(-0.3285 -0.15051 0)
(-0.329059 -0.150849 0)
(-0.329604 -0.15121301 0)
(-0.33013099 -0.1516 0)
(-0.33064201 -0.152009 0)
(-0.33113399 -0.15244099 0)
(-0.33160701 -0.15289301 0)
(-0.332059 -0.153366 0)
(-0.33249101 -0.15385801 0)
(-0.33289999 -0.154369 0)
(-0.333287 -0.15489601 0)
(-0.33365101 -0.155441 0)
(-0.33399001 -0.156 0)
(-0.33430499 -0.156574 0)
(-0.33459499 -0.157161 0)
(-0.334858 -0.15775999 0)
(-0.33509499 -0.15837 0)
(-0.33530599 -0.158989 0)
(-0.335489 -0.15961801 0)
(-0.33564401 -0.160253 0)
(-0.33577201 -0.160895 0)
(-0.33587199 -0.161542 0)
(-0.33594301 -0.162193 0)
(-0.33598599 -0.162846 0)
(-0.336 -0.1635 0)
(-0.33598599 -0.16415399 0)
(-0.33594301 -0.16480701 0)
(-0.33587199 -0.16545799 0)
(-0.33577201 -0.166105 0)
(-0.33564401 -0.166747 0)
(-0.335489 -0.167382 0)
(-0.33530599 -0.16801099 0)
(-0.33509499 -0.16863 0)
(-0.334858 -0.16924 0)
(-0.33459499 -0.16983899 0)
(-0.33430499 -0.170426 0)
(-0.33399001 -0.171 0)
(-0.33365101 -0.17155901 0)
(-0.333287 -0.172104 0)
(-0.33289999 -0.172631 0)
(-0.33249101 -0.173142 0)
(-0.332059 -0.17363399 0)
(-0.33160701 -0.174107 0)
(-0.33113399 -0.174559 0)
(-0.33064201 -0.174991 0)
(-0.33013099 -0.1754 0)
(-0.329604 -0.175787 0)
(-0.329059 -0.17615101 0)
(-0.3285 -0.17648999 0)
(-0.32792601 -0.176805 0)
(-0.32733899 -0.177095 0)
(-0.32674 -0.177358 0)
(-0.32613 -0.177595 0)
(-0.32551101 -0.177806 0)
(-0.324882 -0.17798901 0)
(-0.324247 -0.17814399 0)
(-0.323605 -0.17827199 0)
(-0.32295799 -0.178372 0)
(-0.32230699 -0.178443 0)
(-0.32165399 -0.178486 0)
(-0.32100001 -0.1785 0)
(-0.320346 -0.178486 0)
(-0.319693 -0.178443 0)
(-0.319042 -0.178372 0)
(-0.31839499 -0.17827199 0)
(-0.31775299 -0.17814399 0)
(-0.31711799 -0.17798901 0)
(-0.31648901 -0.177806 0)
(-0.31586999 -0.177595 0)
(-0.31525999 -0.177358 0)
(-0.314661 -0.177095 0)
(-0.31407401 -0.176805 0)
(-0.31349999 -0.17648999 0)
(-0.31294101 -0.17615101 0)
(-0.31239599 -0.175787 0)
(-0.311869 -0.1754 0)
(-0.311358 -0.174991 0)
(-0.310866 -0.174559 0)
(-0.31039301 -0.174107 0)
(-0.30994099 -0.17363399 0)
(-0.30950901 -0.173142 0)
(-0.3091 -0.172631 0)
(-0.30871299 -0.172104 0)
(-0.30834901 -0.17155901 0)
(-0.30801001 -0.171 0)
(-0.307695 -0.170426 0)
(-0.30740499 -0.16983899 0)
(-0.30714199 -0.16924 0)
(-0.306905 -0.16863 0)
(-0.306694 -0.16801099 0)
(-0.30651101 -0.167382 0)
(-0.30635601 -0.166747 0)
(-0.30622801 -0.166105 0)
(-0.306128 -0.16545799 0)
(-0.30605701 -0.16480701 0)
(-0.306014 -0.16415399 0)
(-0.30599999 -0.1635 0)
(-0.33594301 0.16480701 0.050000001)
(-0.33598599 0.16415399 0.050000001)
(-0.336 0.1635 0.050000001)
(-0.33598599 0.162846 0.050000001)
(-0.33564401 0.166747 0.050000001)
(-0.33577201 0.166105 0.050000001)
(-0.33587199 0.16545799 0.050000001)
(-0.33509499 0.16863 0.050000001)
(-0.33530599 0.16801099 0.050000001)
(-0.335489 0.167382 0.050000001)
(-0.33430499 0.170426 0.050000001)
(-0.33459499 0.16983899 0.050000001)
(-0.334858 0.16924 0.050000001)
(-0.333287 0.172104 0.050000001)
(-0.33365101 0.17155901 0.050000001)
(-0.33399001 0.171 0.050000001)
(-0.332059 0.17363399 0.050000001)
(-0.33249101 0.173142 0.050000001)
(-0.33289999 0.172631 0.050000001)
(-0.33064201 0.174991 0.050000001)
(-0.33113399 0.174559 0.050000001)
(-0.33160701 0.174107 0.050000001)
(-0.329059 0.17615101 0.050000001)
(-0.329604 0.175787 0.050000001)
(-0.33013099 0.1754 0.050000001)
(-0.32733899 0.177095 0.050000001)
(-0.32792601 0.176805 0.050000001)
(-0.3285 0.17648999 0.050000001)
(-0.32551101 0.177806 0.050000001)
(-0.32613 0.177595 0.050000001)
(-0.32674 0.177358 0.050000001)
(-0.323605 0.17827199 0.050000001)
(-0.324247 0.17814399 0.050000001)
(-0.324882 0.17798901 0.050000001)
(-0.32165399 0.178486 0.050000001)
(-0.32230699 0.178443 0.050000001)
(-0.32295799 0.178372 0.050000001)
(-0.319693 0.178443 0.050000001)
(-0.320346 0.178486 0.050000001)
(-0.32100001 0.1785 0.050000001)
(-0.31775299 0.17814399 0.050000001)
(-0.31839499 0.17827199 0.050000001)
(-0.319042 0.178372 0.050000001)
(-0.31586999 0.177595 0.050000001)
(-0.31648901 0.177806 0.050000001)
(-0.31711799 0.17798901 0.050000001)
(-0.31407401 0.176805 0.050000001)
(-0.314661 0.177095 0.050000001)
(-0.31525999 0.177358 0.050000001)
(-0.31239599 0.175787 0.050000001)
(-0.31294101 0.17615101 0.050000001)
(-0.31349999 0.17648999 0.050000001)
(-0.310866 0.174559 0.050000001)
(-0.311358 0.174991 0.050000001)
(-0.311869 0.1754 0.050000001)
(-0.30950901 0.173142 0.050000001)
(-0.30994099 0.17363399 0.050000001)
(-0.31039301 0.174107 0.050000001)
(-0.30834901 0.17155901 0.050000001)
(-0.30871299 0.172104 0.050000001)
(-0.3091 0.172631 0.050000001)
(-0.30740499 0.16983899 0.050000001)
(-0.307695 0.170426 0.050000001)
(-0.30801001 0.171 0.050000001)
(-0.306694 0.16801099 0.050000001)
(-0.306905 0.16863 0.050000001)
(-0.30714199 0.16924 0.050000001)
(-0.30622801 0.166105 0.050000001)
(-0.30635601 0.166747 0.050000001)
(-0.30651101 0.167382 0.050000001)
(-0.306014 0.16415399 0.050000001)
(-0.30605701 0.16480701 0.050000001)
(-0.306128 0.16545799 0.050000001)
(-0.30605701 0.162193 0.050000001)
(-0.306014 0.162846 0.050000001)
(-0.30599999 0.1635 0.050000001)
(-0.30635601 0.160253 0.050000001)
(-0.30622801 0.160895 0.050000001)
(-0.306128 0.161542 0.050000001)
(-0.306905 0.15837 0.050000001)
(-0.306694 0.158989 0.050000001)
(-0.30651101 0.15961801 0.050000001)
(-0.307695 0.156574 0.050000001)
(-0.30740499 0.157161 0.050000001)
(-0.30714199 0.15775999 0.050000001)
(-0.30871299 0.15489601 0.050000001)
(-0.30834901 0.155441 0.050000001)
(-0.30801001 0.156 0.050000001)
(-0.30994099 0.153366 0.050000001)
(-0.30950901 0.15385801 0.050000001)
(-0.3091 0.154369 0.050000001)
(-0.311358 0.152009 0.050000001)
(-0.310866 0.15244099 0.050000001)
(-0.31039301 0.15289301 0.050000001)
(-0.31294101 0.150849 0.050000001)
(-0.31239599 0.15121301 0.050000001)
(-0.311869 0.1516 0.050000001)
(-0.314661 0.149905 0.050000001)
(-0.31407401 0.150195 0.050000001)
(-0.31349999 0.15051 0.050000001)
(-0.31648901 0.149194 0.050000001)
(-0.31586999 0.149405 0.050000001)
(-0.31525999 0.14964201 0.050000001)
(-0.31839499 0.148728 0.050000001)
(-0.31775299 0.148856 0.050000001)
(-0.31711799 0.149011 0.050000001)
(-0.320346 0.148514 0.050000001)
(-0.319693 0.14855701 0.050000001)
(-0.319042 0.148628 0.050000001)
(-0.32230699 0.14855701 0.050000001)
(-0.32165399 0.148514 0.050000001)
(-0.32100001 0.1485 0.050000001)
(-0.324247 0.148856 0.050000001)
(-0.323605 0.148728 0.050000001)
(-0.32295799 0.148628 0.050000001)
(-0.32613 0.149405 0.050000001)
(-0.32551101 0.149194 0.050000001)
(-0.324882 0.149011 0.050000001)