/*--------------------------------*- C++ -*----------------------------------*\
  =========                 |
  \\      /  F ield         | OpenFOAM: The Open Source CFD Toolbox
   \\    /   O peration     | Website:  https://openfoam.org
    \\  /    A nd           | Version:  7
     \\/     M anipulation  |
\*---------------------------------------------------------------------------*/
FoamFile
{
    version     2.0;
    format      ascii;
    class       dictionary;
    object      blockMeshDict;
}

// * * * * * * * * * * * * * * * * * * * * * * * * * * * * * * * * * * * * * //

convertToMeters 1;

vertices
(
    (-37.8 -18 -0.504)
    (117 -18 -0.504)
    (117 18 -0.504)
    (-37.8 18 -0.504)
    (-37.8 -18 32.096)
    (117 -18 32.096)
    (117 18 32.096)
    (-37.8 18 32.096)
);
// Dimensiones totales: 154.8 36 32.6
blocks
(
    hex (0 1 2 3 4 5 6 7) (65 15 14) simpleGrading (1 1 1) // Para h aprox. 2.4 m
);

edges
(
);

boundary
(
    frontAndBack
    {
        type patch;
        faces
        (
            (3 7 6 2)
            (1 5 4 0)
        );
    }
    inlet
    {
        type patch;
        faces
        (
            (0 4 7 3)
        );
    }
    outlet
    {
        type patch;
        faces
        (
            (2 6 5 1)
        );
    }
    lowerWall
    {
        type wall;
        faces
        (
            (0 3 2 1)
        );
    }
    upperWall
    {
        type patch;
        faces
        (
            (4 5 6 7)
        );
    }
);

// ************************************************************************* //
