/*--------------------------------*- C++ -*----------------------------------*\
  =========                 |
  \\      /  F ield         | OpenFOAM: The Open Source CFD Toolbox
   \\    /   O peration     | Website:  https://openfoam.org
    \\  /    A nd           | Version:  7
     \\/     M anipulation  |
\*---------------------------------------------------------------------------*/
FoamFile
{
    version     2.0;
    format      ascii;
    class       dictionary;
    object      blockMeshDict;
}

// * * * * * * * * * * * * * * * * * * * * * * * * * * * * * * * * * * * * * //

convertToMeters 1;

// Parameters

Lmin_dom  -37.8
Lmax_dom  117.0
Wmin_dom  -18.0
Wmax_dom   18.0 
Hmin_dom   -0.504
Hmax_dom   32.4

vertices
(
    ($Lmin_dom  $Wmin_dom $Hmin_dom)
    ($Lmax_dom  $Wmin_dom $Hmin_dom)
    ($Lmax_dom  $Wmax_dom $Hmin_dom)
    ($Lmin_dom  $Wmax_dom $Hmin_dom)
    ($Lmin_dom  $Wmin_dom $Hmax_dom)
    ($Lmax_dom  $Wmin_dom $Hmax_dom)
    ($Lmax_dom  $Wmax_dom $Hmax_dom)
    ($Lmin_dom  $Wmax_dom $Hmax_dom)

/* // El dominio se extiende 1 m sobre cada borde, para contener a todo el volumen deseado
    (-38.8 -19 -1.504)
    (118 -19 -1.504)
    (118 19 -1.504)
    (-38.8 19 -1.504)
    (-38.8 -19 33.4)
    (118 -19 33.4)
    (118 19 33.4)
    (-38.8 19 33.4)
*/
);
// Dimensiones totales: 154.8 36 32.904 (sin agrandar dominio contenedor)
// Dimensiones totales: 156.6 38 34.904 (agrandando dominio contenedor en una unidad en cada borde)
blocks
(
    // hex (0 1 2 3 4 5 6 7) (155 36 33) simpleGrading (1 1 1) // Para h aprox. 1 m
    hex (0 1 2 3 4 5 6 7) (258 60 55) simpleGrading (1 1 1) // Para h aprox. 0.6 m
);

edges
(
);

boundary
(
    frontAndBack
    {
        type patch;
        faces
        (
            (3 7 6 2)
            (1 5 4 0)
        );
    }
    inlet
    {
        type patch;
        faces
        (
            (0 4 7 3)
        );
    }
    outlet
    {
        type patch;
        faces
        (
            (2 6 5 1)
        );
    }
    lowerWall
    {
        type wall;
        faces
        (
            (0 3 2 1)
        );
    }
    upperWall
    {
        type patch;
        faces
        (
            (4 5 6 7)
        );
    }
);

// ************************************************************************* //
