/*--------------------------------*- C++ -*----------------------------------*\
  =========                 |
  \\      /  F ield         | OpenFOAM: The Open Source CFD Toolbox
   \\    /   O peration     | Website:  https://openfoam.org
    \\  /    A nd           | Version:  7
     \\/     M anipulation  |
\*---------------------------------------------------------------------------*/
FoamFile
{
    version     2.0;
    format      ascii;
    class       dictionary;
    object      meshQualityDict;
}
// * * * * * * * * * * * * * * * * * * * * * * * * * * * * * * * * * * * * * //

// Include defaults parameters from master dictionary
#includeEtc "caseDicts/mesh/generation/meshQualityDict"

//- minFaceWeight (0 -> 0.5)
minFaceWeight 0.02;

// Minimo determinante de celdas
// En general, al adicionar muchas capas en torno a una superficie, los valores pueden ser menores,
// llevando a que no se generen dichas capas (en ese caso, reducir este parametro)
minDeterminant 0.0001; // Default 0.001

// ************************************************************************* //
